Circuit: * C:\Users\Aaron\Documents\GitHub\SSTstuff\Draft3.asc

WARNING: Less than two connections to node NC_01.  This node is used by B1.
Direct Newton iteration failed to find .op point.  (Use ".option noopiter" to skip.)
Starting Gmin stepping
Gmin = 10
Gmin = 1.07374
Gmin = 0.115292
Gmin = 0.0123794
Gmin = 0.00132923
Gmin = 0.000142725
Gmin = 1.5325e-005
Gmin = 1.6455e-006
Gmin = 1.76685e-007
Gmin = 1.89714e-008
vernier = 0.5
vernier = 0.25
vernier = 0.125
Gmin = 8.8568e-009
vernier = 0.166667
vernier = 0.222222
Gmin = 5.85079e-009
vernier = 0.296296
Gmin = 3.06962e-009
vernier = 0.395061
vernier = 0.526748
Gmin = 1.06353e-009
vernier = 0.702331
vernier = 0.936441
Gmin = 2.06571e-010
vernier = 1
Gmin = 2.3345e-011
Gmin = 2.50665e-012
Gmin = 2.69149e-013
Gmin = 0
Gmin stepping succeeded in finding the operating point.


Date: Fri Sep 21 20:48:31 2018
Total elapsed time: 0.288 seconds.

tnom = 27
temp = 27
method = modified trap
totiter = 4113
traniter = 3263
tranpoints = 1526
accept = 1421
rejected = 105
matrix size = 36
fillins = 36
solver = Normal
Thread vector: 30.6/16.9[3] 7.3/5.1[3] 4.7/3.1[3] 0.4/0.9[1]  2592/500
Matrix Compiler1: 3.92 KB object code size  1.3/0.8/[0.5]
Matrix Compiler2: off  [0.7]/1.0/1.0


