Circuit: * C:\Users\Aaron\Documents\GitHub\SSTstuff\SST1Circuit.asc

C4: both pins shorted together -- ignoring.
R2: both pins shorted together -- ignoring.
R19: both pins shorted together -- ignoring.
WARNING: Node N010 is floating.
WARNING: Node NC_03 is floating.

WARNING: Less than two connections to node NC_01.  This node is used by B3.
WARNING: Less than two connections to node NC_02.  This node is used by B4.
WARNING: Less than two connections to node N007.  This node is used by R§BRTONE.
WARNING: Less than two connections to node N009.  This node is used by R§BRVOL.
WARNING: Less than two connections to node NC_03.  This node is used by C18.
Direct Newton iteration failed to find .op point.  (Use ".option noopiter" to skip.)
Starting Gmin stepping
Gmin = 10
Gmin = 1.07374
Gmin = 0.115292
Gmin = 0.0123794
Gmin = 0.00132923
Gmin = 0.000142725
Gmin = 1.5325e-005
Gmin = 1.6455e-006
vernier = 0.5
Gmin = 3.06744e-007
vernier = 0.25
Gmin = 1.59101e-007
vernier = 0.333333
vernier = 0.444444
Gmin = 6.45761e-008
vernier = 0.592592
vernier = 0.790123
Gmin = 1.59219e-008
vernier = 1
Gmin = 2.0295e-009
Gmin = 2.17916e-010
Gmin = 2.33986e-011
Gmin = 2.5124e-012
Gmin = 2.69767e-013
Gmin = 0
Gmin stepping succeeded in finding the operating point.


Date: Sun Sep 09 16:21:46 2018
Total elapsed time: 0.606 seconds.

tnom = 27
temp = 27
method = modified trap
totiter = 22527
traniter = 21818
tranpoints = 8108
accept = 5498
rejected = 2610
matrix size = 101
fillins = 41
solver = Normal
Thread vector: 22.0/12.9[3] 8.3/5.0[3] 2.9/2.3[3] 0.5/1.0[1]  2592/500
Matrix Compiler1: 6.67 KB object code size  2.6/1.3/[0.9]
Matrix Compiler2: off  [0.8]/1.4/0.9


