Circuit: * C:\Users\Aaron\Documents\GitHub\SSTstuff\SST1Circuit.asc

C4: both pins shorted together -- ignoring.
R2: both pins shorted together -- ignoring.
R17: both pins shorted together -- ignoring.
R18: both pins shorted together -- ignoring.
R26: both pins shorted together -- ignoring.
R37: both pins shorted together -- ignoring.
R27: both pins shorted together -- ignoring.
WARNING: Node N010 is floating.

WARNING: Less than two connections to node NC_01.  This node is used by B3.
WARNING: Less than two connections to node NC_02.  This node is used by B4.
WARNING: Less than two connections to node N007.  This node is used by R§BRTONE.
WARNING: Less than two connections to node N009.  This node is used by R§BRVOL.
WARNING: Less than two connections to node NC_03.  This node is used by Q1.
WARNING: Less than two connections to node NC_04.  This node is used by Q2.
WARNING: Less than two connections to node N036.  This node is used by R43.
Direct Newton iteration failed to find .op point.  (Use ".option noopiter" to skip.)
Starting Gmin stepping
Gmin = 10
Gmin = 1.07374
Gmin = 0.115292
Gmin = 0.0123794
Gmin = 0.00132923
Gmin = 0.000142725
Gmin = 1.5325e-005
Gmin = 1.6455e-006
Gmin = 1.76685e-007
vernier = 0.5
vernier = 0.25
vernier = 0.125
Gmin = 1.05016e-007
vernier = 0.166667
vernier = 0.222222
Gmin = 7.10085e-008
vernier = 0.296296
Gmin = 3.79083e-008
vernier = 0.395061
vernier = 0.526748
Gmin = 1.38386e-008
vernier = 0.702331
vernier = 0.936441
Gmin = 2.93115e-009
vernier = 1
Gmin = 3.3552e-010
Gmin = 3.60262e-011
Gmin = 3.86829e-012
Gmin = 4.15354e-013
Gmin = 0
Gmin stepping succeeded in finding the operating point.


Date: Tue Sep 25 01:53:37 2018
Total elapsed time: 6.634 seconds.

tnom = 27
temp = 27
method = modified trap
totiter = 89665
traniter = 88692
tranpoints = 29447
accept = 20053
rejected = 9394
matrix size = 138
fillins = 389
solver = Normal
Thread vector: 64.7/32.7[4] 18.9/9.2[4] 8.2/5.3[4] 0.8/5.1[1]  2592/500
Matrix Compiler1: 55.17 KB object code size  13.6/7.5/[6.0]
Matrix Compiler2: 16.97 KB object code size  1.9/3.2/[1.5]


