Circuit: * C:\Users\Aaron\Documents\GitHub\SSTstuff\SST1Circuit.asc

C4: both pins shorted together -- ignoring.
R2: both pins shorted together -- ignoring.
R17: both pins shorted together -- ignoring.
R18: both pins shorted together -- ignoring.
R26: both pins shorted together -- ignoring.
R37: both pins shorted together -- ignoring.
R27: both pins shorted together -- ignoring.
WARNING: Node N010 is floating.

WARNING: Less than two connections to node NC_01.  This node is used by B3.
WARNING: Less than two connections to node NC_02.  This node is used by B4.
WARNING: Less than two connections to node N007.  This node is used by R§BRTONE.
WARNING: Less than two connections to node N009.  This node is used by R§BRVOL.
WARNING: Less than two connections to node NC_03.  This node is used by Q1.
WARNING: Less than two connections to node NC_04.  This node is used by Q2.
WARNING: Less than two connections to node N036.  This node is used by R43.
Direct Newton iteration failed to find .op point.  (Use ".option noopiter" to skip.)
Starting Gmin stepping
Gmin = 10
Gmin = 1.07374
Gmin = 0.115292
Gmin = 0.0123794
Gmin = 0.00132923
Gmin = 0.000142725
Gmin = 1.5325e-005
Gmin = 1.6455e-006
vernier = 0.5
Gmin = 2.7607e-007
vernier = 0.25
vernier = 0.333333
Gmin = 1.54418e-007
vernier = 0.444444
Gmin = 5.95805e-008
vernier = 0.592592
vernier = 0.790123
Gmin = 1.26465e-008
vernier = 1
Gmin = 1.47951e-009
Gmin = 1.58861e-010
Gmin = 1.70576e-011
Gmin = 1.83154e-012
Gmin = 1.9666e-013
Gmin = 0
Gmin stepping succeeded in finding the operating point.


Date: Sat Oct 06 16:14:35 2018
Total elapsed time: 2.513 seconds.

tnom = 27
temp = 27
method = modified trap
totiter = 19789
traniter = 19039
tranpoints = 7748
accept = 5025
rejected = 2723
matrix size = 138
fillins = 409
solver = Normal
Thread vector: 67.6/25.4[4] 18.8/12.4[4] 8.3/4.6[4] 0.8/5.6[1]  2592/500
Matrix Compiler1: 58.67 KB object code size  13.7/7.9/[5.9]
Matrix Compiler2: 17.34 KB object code size  1.7/2.7/[1.5]


