Circuit: * C:\Users\Aaron\Documents\GitHub\SSTstuff\SST1Circuit.asc

C4: both pins shorted together -- ignoring.
R2: both pins shorted together -- ignoring.
R17: both pins shorted together -- ignoring.
R18: both pins shorted together -- ignoring.
R26: both pins shorted together -- ignoring.
R29: both pins shorted together -- ignoring.
R37: both pins shorted together -- ignoring.
WARNING: Node N010 is floating.
WARNING: Node ODIN is floating.

WARNING: Less than two connections to node NC_01.  This node is used by B3.
WARNING: Less than two connections to node NC_02.  This node is used by B4.
WARNING: Less than two connections to node N007.  This node is used by R§BRTONE.
WARNING: Less than two connections to node N009.  This node is used by R§BRVOL.
WARNING: Less than two connections to node ODIN.  This node is used by C5.
Direct Newton iteration failed to find .op point.  (Use ".option noopiter" to skip.)
Starting Gmin stepping
Gmin = 10
Gmin = 1.07374
Gmin = 0.115292
Gmin = 0.0123794
Gmin = 0.00132923
Gmin = 0.000142725
Gmin = 1.5325e-005
Gmin = 1.6455e-006
vernier = 0.5
Gmin = 4.67527e-007
vernier = 0.666667
vernier = 0.333333
Gmin = 1.97313e-007
vernier = 0.444444
vernier = 0.592592
Gmin = 6.03419e-008
vernier = 0.790123
vernier = 1
Gmin = 9.93307e-009
Gmin = 1.06656e-009
Gmin = 1.14521e-010
Gmin = 1.22965e-011
Gmin = 1.32033e-012
Gmin = 1.4177e-013
Gmin = 0
Gmin stepping succeeded in finding the operating point.


Date: Tue Sep 18 21:40:16 2018
Total elapsed time: 0.314 seconds.

tnom = 27
temp = 27
method = trap
totiter = 759
traniter = 0
tranpoints = 0
accept = 0
rejected = 0
matrix size = 138
fillins = 152
solver = Normal
Matrix Compiler1:    1165 opcodes
Matrix Compiler2: 12.90 KB object code size  1.8/2.8/[1.2]


