Circuit: * C:\Users\daw0043\Documents\GitHub\SSTstuff\SST1Circuit.asc

C4: both pins shorted together -- ignoring.
R2: both pins shorted together -- ignoring.
WARNING: Node N017 is floating.

WARNING: Less than two connections to node NC_01.  This node is used by B3.
WARNING: Less than two connections to node NC_02.  This node is used by B4.
WARNING: Less than two connections to node N011.  This node is used by R§BRTONE.
WARNING: Less than two connections to node N015.  This node is used by R§BRVOL.
WARNING: Less than two connections to node NC_03.  This node is used by R18.
Direct Newton iteration failed to find .op point.  (Use ".option noopiter" to skip.)
Starting Gmin stepping
Gmin = 10
Gmin = 1.07374
Gmin = 0.115292
Gmin = 0.0123794
Gmin = 0.00132923
Gmin = 0.000142725
Gmin = 1.5325e-005
Gmin = 1.6455e-006
Gmin = 1.76685e-007
Gmin = 1.89714e-008
Gmin = 2.03704e-009
Gmin = 2.18725e-010
Gmin = 2.34854e-011
Gmin = 2.52173e-012
Gmin = 2.70769e-013
Gmin = 0
Gmin stepping succeeded in finding the operating point.


Date: Thu Aug 30 17:41:23 2018
Total elapsed time: 0.091 seconds.

tnom = 27
temp = 27
method = modified trap
totiter = 3265
traniter = 2862
tranpoints = 1432
accept = 1169
rejected = 263
matrix size = 97
fillins = 37
solver = Normal
Thread vector: 7.4/5.0[3] 4.7/2.2[3] 1.8/1.5[3] 0.3/1.0[1]  2592/500
Matrix Compiler1: 4.87 KB object code size  0.8/0.5/[0.3]
Matrix Compiler2: 6.78 KB object code size  0.5/2.3/[0.4]


