Circuit: * C:\Users\Aaron\Documents\GitHub\SSTstuff\SST1Circuit.asc

C4: both pins shorted together -- ignoring.
R2: both pins shorted together -- ignoring.
R19: both pins shorted together -- ignoring.
WARNING: Node N010 is floating.
WARNING: Node NC_03 is floating.

WARNING: Less than two connections to node NC_01.  This node is used by B3.
WARNING: Less than two connections to node NC_02.  This node is used by B4.
WARNING: Less than two connections to node N007.  This node is used by R§BRTONE.
WARNING: Less than two connections to node N009.  This node is used by R§BRVOL.
WARNING: Less than two connections to node NC_03.  This node is used by C18.
Direct Newton iteration failed to find .op point.  (Use ".option noopiter" to skip.)
Starting Gmin stepping
Gmin = 10
Gmin = 1.07374
Gmin = 0.115292
Gmin = 0.0123794
Gmin = 0.00132923
Gmin = 0.000142725
Gmin = 1.5325e-005
Gmin = 1.6455e-006
vernier = 0.5
Gmin = 3.40827e-007
vernier = 0.666667
vernier = 0.888888
Gmin = 7.76686e-008
vernier = 1
Gmin = 9.33136e-009
Gmin = 1.00195e-009
Gmin = 1.07583e-010
Gmin = 1.15517e-011
Gmin = 1.24035e-012
Gmin = 1.33182e-013
Gmin = 0
Gmin stepping succeeded in finding the operating point.


Date: Tue Sep 11 23:03:55 2018
Total elapsed time: 0.491 seconds.

tnom = 27
temp = 27
method = modified trap
totiter = 14701
traniter = 14122
tranpoints = 6659
accept = 4238
rejected = 2421
matrix size = 104
fillins = 42
solver = Normal
Thread vector: 24.4/11.6[3] 9.0/5.9[3] 3.0/2.8[1] 0.6/1.0[1]  2592/500
Matrix Compiler1: 7.01 KB object code size  2.6/1.4/[1.0]
Matrix Compiler2: off  [0.7]/1.5/1.2


