Circuit: * C:\Users\daw0043\Documents\GitHub\SSTstuff\SST1Circuit.asc

C4: both pins shorted together -- ignoring.
R2: both pins shorted together -- ignoring.
WARNING: Node N010 is floating.
WARNING: Node ODIN is floating.

WARNING: Less than two connections to node NC_01.  This node is used by B3.
WARNING: Less than two connections to node NC_02.  This node is used by B4.
WARNING: Less than two connections to node N007.  This node is used by R§BRTONE.
WARNING: Less than two connections to node N009.  This node is used by R§BRVOL.
Direct Newton iteration failed to find .op point.  (Use ".option noopiter" to skip.)
Starting Gmin stepping
Gmin = 10
Gmin = 1.07374
Gmin = 0.115292
Gmin = 0.0123794
Gmin = 0.00132923
Gmin = 0.000142725
Gmin = 1.5325e-005
Gmin = 1.6455e-006
Gmin = 1.76685e-007
vernier = 0.5
vernier = 0.666667
Gmin = 6.61545e-008
vernier = 0.888888
vernier = 1
Gmin = 9.33136e-009
Gmin = 1.00195e-009
Gmin = 1.07583e-010
Gmin = 1.15517e-011
Gmin = 1.24035e-012
Gmin = 1.33182e-013
Gmin = 0
Gmin stepping succeeded in finding the operating point.


Date: Tue Sep 04 11:14:57 2018
Total elapsed time: 1.313 seconds.

tnom = 27
temp = 27
method = modified trap
totiter = 8883
traniter = 8335
tranpoints = 3583
accept = 2328
rejected = 1255
matrix size = 88
fillins = 20
solver = Normal
Thread vector: 5.7/4.5[2] 2.9/2.1[2] 2.5/1.8[2] 0.2/1.1[1]  2592/500
Matrix Compiler1: 4.04 KB object code size  0.6/0.3/[0.2]
Matrix Compiler2: off  [0.7]/1.0/1.0


