Circuit: * C:\Users\Aaron\Documents\GitHub\SSTstuff\SST1Circuit.asc

C4: both pins shorted together -- ignoring.
R2: both pins shorted together -- ignoring.
R17: both pins shorted together -- ignoring.
R18: both pins shorted together -- ignoring.
R26: both pins shorted together -- ignoring.
R37: both pins shorted together -- ignoring.
R27: both pins shorted together -- ignoring.
WARNING: Node N010 is floating.
WARNING: Node ODIN is floating.

WARNING: Less than two connections to node NC_01.  This node is used by B3.
WARNING: Less than two connections to node NC_02.  This node is used by B4.
WARNING: Less than two connections to node N007.  This node is used by R§BRTONE.
WARNING: Less than two connections to node N009.  This node is used by R§BRVOL.
WARNING: Less than two connections to node ODIN.  This node is used by C5.
WARNING: Less than two connections to node NC_03.  This node is used by Q1.
WARNING: Less than two connections to node NC_04.  This node is used by Q2.
WARNING: Less than two connections to node N037.  This node is used by R43.
Early termination of direct N-R iteration.
Direct Newton iteration failed to find .op point.  (Use ".option noopiter" to skip.)
Starting Gmin stepping
Gmin = 10
Gmin = 1.07374
Gmin = 0.115292
Gmin = 0.0123794
Gmin = 0.00132923
Gmin = 0.000142725
Gmin = 1.5325e-005
Gmin = 1.6455e-006
vernier = 0.5
Gmin = 2.7607e-007
vernier = 0.25
vernier = 0.125
vernier = 0.166667
Gmin = 2.01984e-007
vernier = 0.222222
Gmin = 1.25681e-007
vernier = 0.296296
vernier = 0.395061
Gmin = 5.84612e-008
vernier = 0.526748
vernier = 0.702331
Gmin = 1.7846e-008
vernier = 0.936441
Gmin = 2.77655e-009
vernier = 1
Gmin = 3.01968e-010
Gmin = 3.24236e-011
Gmin = 3.48146e-012
Gmin = 3.73819e-013
Gmin = 0
Gmin stepping succeeded in finding the operating point.


Date: Thu Sep 20 17:44:41 2018
Total elapsed time: 0.260 seconds.

tnom = 27
temp = 27
method = trap
totiter = 840
traniter = 0
tranpoints = 0
accept = 0
rejected = 0
matrix size = 140
fillins = 407
solver = Normal
Matrix Compiler1:    3063 opcodes
Matrix Compiler2: 17.40 KB object code size  1.3/2.4/[1.2]


