Questionable use of curly braces in ".model sir870adp vdmos(rg=3 vto=2.9 rd=3.2m rs=1.5m rb={m} kp=100 mtriode=1.85 cgdmax=1.4n cgdmin=70p cgs=2.9n cjo=3.6n m=.4 a=.7 vj=.7 lambda=20m is=3p ksubthres=.08 mfg=siliconix vds=100 ron=5.5m qg=53.5n)"
    Error: undefined symbol in: "[m]"
Circuit: * C:\Users\daw0043\Documents\GitHub\SSTstuff\SST1Circuit.asc

C4: both pins shorted together -- ignoring.
R2: both pins shorted together -- ignoring.
R15: both pins shorted together -- ignoring.
WARNING: Node N010 is floating.

WARNING: Less than two connections to node NC_01.  This node is used by B3.
WARNING: Less than two connections to node NC_02.  This node is used by B4.
WARNING: Less than two connections to node N007.  This node is used by R§BRTONE.
WARNING: Less than two connections to node N009.  This node is used by R§BRVOL.
Direct Newton iteration failed to find .op point.  (Use ".option noopiter" to skip.)
Starting Gmin stepping
Gmin = 10
Gmin = 1.07374
Gmin = 0.115292
Gmin = 0.0123794
Gmin = 0.00132923
Gmin = 0.000142725
Gmin = 1.5325e-005
Gmin = 1.6455e-006
vernier = 0.5
Gmin = 3.40827e-007
vernier = 0.666667
vernier = 0.888888
Gmin = 7.76686e-008
vernier = 1
Gmin = 9.33136e-009
Gmin = 1.00195e-009
Gmin = 1.07583e-010
Gmin = 1.15517e-011
Gmin = 1.24035e-012
Gmin = 1.33182e-013
Gmin = 0
Gmin stepping succeeded in finding the operating point.


Date: Thu Sep 06 13:34:12 2018
Total elapsed time: 0.411 seconds.

tnom = 27
temp = 27
method = modified trap
totiter = 22100
traniter = 21523
tranpoints = 6861
accept = 4776
rejected = 2085
matrix size = 99
fillins = 41
solver = Normal
Thread vector: 12.5/6.8[3] 4.5/3.2[3] 3.1/1.4[3] 0.2/1.9[1]  2592/500
Matrix Compiler1: 6.61 KB object code size  1.3/0.5/[0.3]
Matrix Compiler2: 6.97 KB object code size  0.4/0.9/[0.4]


