Circuit: * C:\Users\daw0043\Documents\GitHub\SSTstuff\SST1Circuit.asc

C4: both pins shorted together -- ignoring.
R2: both pins shorted together -- ignoring.
R19: both pins shorted together -- ignoring.
WARNING: Node N010 is floating.
WARNING: Node NC_03 is floating.

WARNING: Less than two connections to node NC_01.  This node is used by B3.
WARNING: Less than two connections to node NC_02.  This node is used by B4.
WARNING: Less than two connections to node N007.  This node is used by R§BRTONE.
WARNING: Less than two connections to node N009.  This node is used by R§BRVOL.
WARNING: Less than two connections to node NC_03.  This node is used by C18.
Direct Newton iteration failed to find .op point.  (Use ".option noopiter" to skip.)
Starting Gmin stepping
Gmin = 10
Gmin = 1.07374
Gmin = 0.115292
Gmin = 0.0123794
Gmin = 0.00132923
Gmin = 0.000142725
Gmin = 1.5325e-005
Gmin = 1.6455e-006
Gmin = 1.76685e-007
vernier = 0.5
vernier = 0.25
vernier = 0.333333
Gmin = 1.20446e-007
vernier = 0.444444
Gmin = 4.76644e-008
vernier = 0.592592
vernier = 0.790123
Gmin = 1.09041e-008
vernier = 1
Gmin = 1.33156e-009
Gmin = 1.42975e-010
Gmin = 1.53518e-011
Gmin = 1.64839e-012
Gmin = 1.76994e-013
Gmin = 0
Gmin stepping succeeded in finding the operating point.


Date: Thu Sep 13 16:01:19 2018
Total elapsed time: 0.647 seconds.

tnom = 27
temp = 27
method = modified trap
totiter = 30101
traniter = 29401
tranpoints = 10746
accept = 7329
rejected = 3417
matrix size = 105
fillins = 43
solver = Normal
Thread vector: 12.3/7.3[3] 4.3/2.3[3] 1.9/1.5[3] 0.2/0.7[1]  2592/500
Matrix Compiler1: 6.98 KB object code size  1.0/0.4/[0.3]
Matrix Compiler2: 7.43 KB object code size  0.5/0.9/[0.4]


