Circuit: * C:\Users\Aaron\Documents\GitHub\SSTstuff\SST1Circuit.asc

C4: both pins shorted together -- ignoring.
R2: both pins shorted together -- ignoring.
D1: both pins shorted together -- ignoring.
D2: both pins shorted together -- ignoring.
C15: both pins shorted together -- ignoring.
WARNING: Node N017 is floating.

WARNING: Less than two connections to node NC_01.  This node is used by B3.
WARNING: Less than two connections to node NC_02.  This node is used by B4.
WARNING: Less than two connections to node N011.  This node is used by R§BRTONE.
WARNING: Less than two connections to node N015.  This node is used by R§BRVOL.
WARNING: Less than two connections to node NC_03.  This node is used by R18.
Direct Newton iteration failed to find .op point.  (Use ".option noopiter" to skip.)
Starting Gmin stepping
Gmin = 10
Gmin = 1.07374
Gmin = 0.115292
Gmin = 0.0123794
Gmin = 0.00132923
Gmin = 0.000142725
Gmin = 1.5325e-005
Gmin = 1.6455e-006
Gmin = 1.76685e-007
Gmin = 1.89714e-008
Gmin = 2.03704e-009
Gmin = 2.18725e-010
Gmin = 2.34854e-011
Gmin = 2.52173e-012
Gmin = 2.70769e-013
Gmin = 0
Gmin stepping succeeded in finding the operating point.


Date: Sun Sep 02 23:41:03 2018
Total elapsed time: 0.259 seconds.

tnom = 27
temp = 27
method = modified trap
totiter = 3286
traniter = 2850
tranpoints = 1426
accept = 1169
rejected = 257
matrix size = 107
fillins = 40
solver = Normal
Thread vector: 30.1/17.4[4] 7.7/6.1[2] 3.5/3.0[2] 0.5/33.1[1]  2592/500
Matrix Compiler1: 5.77 KB object code size  2.3/0.9/[0.7]
Matrix Compiler2: off  [0.9]/1.7/1.2


